/*--------------------------------*- C++ -*----------------------------------*\
| =========                 |                                                 |
| \\      /  F ield         | OpenFOAM: The Open Source CFD Toolbox           |
|  \\    /   O peration     | Version:  dev                                   |
|   \\  /    A nd           | Web:      www.OpenFOAM.org                      |
|    \\/     M anipulation  |                                                 |
\*---------------------------------------------------------------------------*/
FoamFile
{
    version     2.0;
    format      ascii;
    class       dictionary;
    location    "system";
    object      controlDict;
}
// * * * * * * * * * * * * * * * * * * * * * * * * * * * * * * * * * * * * * //

application     pimpleDyMFoam;

startFrom       latestTime;
startTime       0;

stopAt          endTime;
endTime         4.5;

// 5 RPM/min
// 12 sec/rev
// 4 sec/blade
// 100 frames
// 10 additional frames
// 0.04 sec/frame
deltaT          1e-3;
writeControl    runTime;
writeInterval   0.04;
purgeWrite      0;

writeFormat     binary;
writePrecision  6;
writeCompression off;

timeFormat      general;
timePrecision   6;

runTimeModifiable true;

adjustTimeStep  no;
maxCo           50;

functions
{
    forces
	{
		type          forces;
		libs          ("libforces.so");

		writeControl  timeStep;
		timeInterval  1;

		log           yes;

		patches       ("rotating_turbine");
		rho           rhoInf;     // Indicates incompressible
		log           true;
		rhoInf        1.2;          // Redundant for incompressible

		CofR          (0 0 0);    // Rotation around centre line of propeller
		pitchAxis     (0 0 1);
	}
}

// ************************************************************************* //
