/*--------------------------------*- C++ -*----------------------------------*\
| =========                 |                                                 |
| \\      /  F ield         | OpenFOAM: The Open Source CFD Toolbox           |
|  \\    /   O peration     | Version:  dev                                   |
|   \\  /    A nd           | Web:      www.OpenFOAM.org                      |
|    \\/     M anipulation  |                                                 |
\*---------------------------------------------------------------------------*/
FoamFile
{
    version     2.0;
    format      ascii;
    class       volScalarField;
    location    "0";
    object      k;
}
// * * * * * * * * * * * * * * * * * * * * * * * * * * * * * * * * * * * * * //

dimensions      [0 2 -2 0 0 0 0];

internalField   uniform 0.06;

boundaryField
{
    upstream_inlet
	{
		type        turbulentIntensityKineticEnergyInlet;
        intensity   0.05;           // 5% turbulence
        value       uniform 1;      // placeholder
	}
	
	"(upstream_walls|rotating_walls|downstream_walls)"
	{
		type	zeroGradient;
	}
	
	rotating_turbine
	{
		type	kLowReWallFunction;
		value	uniform 0.06;
	}
	
	downstream_turbine
	{
		type	kLowReWallFunction;
		value	uniform 0.06;
	}
	
	downstream_outlet
	{
		type	zeroGradient;
	}
	
	".*_ami"
	{
		type	cyclicAMI;
		value	uniform 0.06;
	}
}


// ************************************************************************* //
