/*--------------------------------*- C++ -*----------------------------------*\
| =========                 |                                                 |
| \\      /  F ield         | OpenFOAM: The Open Source CFD Toolbox           |
|  \\    /   O peration     | Version:  dev                                   |
|   \\  /    A nd           | Web:      www.OpenFOAM.org                      |
|    \\/     M anipulation  |                                                 |
\*---------------------------------------------------------------------------*/
FoamFile
{
    version     2.0;
    format      ascii;
    class       volScalarField;
    location    "0";
    object      nut;
}
// * * * * * * * * * * * * * * * * * * * * * * * * * * * * * * * * * * * * * //

dimensions      [0 2 -1 0 0 0 0];

internalField   uniform 0;

boundaryField
{
    upstream_inlet
	{
		type	calculated;
		value	uniform 0;
	}
	
	"(upstream_walls|rotating_walls|downstream_walls)"
	{
		type	zeroGradient;
	}
	
	rotating_turbine
	{
		type	nutLowReWallFunction;
		value	uniform 0;
	}
	
	downstream_turbine
	{
		type	nutLowReWallFunction;
		value	uniform 0;
	}
	
	downstream_outlet
	{
		type	zeroGradient;
	}
	
	".*_ami"
	{
		type	cyclicAMI;
		value	uniform 0.06;
	}
}


// ************************************************************************* //
